##CIF_1.1

data_sm_global
#Used dictionaries
loop_
_audit_conform_dict_name
_audit_conform_dict_version
_audit_conform_dict_location
cif_core.dic 	2.4.2 	.
cif_pd.dic 		1.0.1 	.
cif_sm.dic 		0.1 	'redaktion.landolt-boernstein(at)springer.com'

#About this content and reference
_sm_credits_copyright
;PAULING FILE Multinaries Edition - 2012. SpringerMaterials Release 2014.
http://www.paulingfile.com
Unique LPF ID Number SD1801962
Project Coordinator: Shuichi Iwata
Section-Editors: Karin Cenzual (Crystal Structures), Hiroaki Okamoto (Phase 
Diagrams), Fritz Hulliger (Physical Properties)
(c) Springer & Material Phases Data System (MPDS), Switzerland & National 
Institute for Materials Science (NIMS), Japan 2014.
(Data generated pre-2002: (c) Springer & MPDS & NIMS; 
post-2001: (c) Springer & MPDS)
All Rights Reserved. Version 2014.06.
;

_audit_creation_method
;This data have been compiled from the crystallographic datasheet for 
"Y2SiO5 (Y2[SiO4]O ht) Crystal Structure" 
taken from SpringerMaterials (sm_isp_sd_1801962).
;

_publ_section_references
;Maksimov B.A., Demyanets L.N., Iliukhin V.V., Kharitonov L.N., Belov N.V.: <i>Crystal structures and comparative crystal chemistry of synthetic Sc and Y germanates (silicates)</i>. Soviet Physics Crystallography (translated from Kristallografiya) <b>21</b> (1976) 539-542.
;

#Phase classification
_sm_phase_labels				'Y2[SiO4]O ht'
_chemical_name_mineral			''
_sm_chemical_compound_class		'orthosilicate, oxide'
_sm_phase_prototype				'Y2 [SiO4 ]O'
_sm_pearson_symbol				'mS64'
_symmetry_Int_Tables_number		15
_sm_sample_details
;single crystal (determination of cell parameters)
;
_sm_measurement_details
;photographs (determination of cell parameters), 
X-rays (determination of cell parameters)
;
_sm_interpretation_details
;cell parameters determined and structure type assigned
;

data_sm_isp_SD1801962-standardized_unitcell
#Cell Parameters
_cell_length_a					14.4
_cell_length_b					6.72
_cell_length_c					10.41
_cell_angle_alpha				90
_cell_angle_beta				122.2
_cell_angle_gamma				90
_sm_length_ratio_ab				2.143
_sm_length_ratio_bc				0.646
_sm_length_ratio_ca				0.723
_cell_volume 					852.4
_symmetry_space_group_name_H-M	'C12/c1'
_symmetry_Int_Tables_number		15
_cell_formula_units_Z			8
_sm_cell_transformation
;No transformation from published to standardized cell parameters necessary.
;

#Atom Coordinates
loop_
_atom_site_label
_atom_site_type_symbol
_atom_site_Wyckoff_symbol
_sm_site_symmetry
_atom_site_fract_x
_atom_site_fract_y
_atom_site_fract_z
_atom_site_occupancy
_sm_coordination_number
_sm_atomic_environment_type
Y1 'Y' .8f .1 0.037 0.257 0.466 1 ? '?'
O1 'O' .8f .1 0.089 0.002 0.143 1 ? '?'
O2 'O' .8f .1 0.118 0.287 0.318 1 ? '?'
Si1 'Si' .8f .1 0.181 0.093 0.308 1 ? '?'
O3 'O' .8f .1 0.297 0.429 0.06 1 ? '?'
O4 'O' .8f .1 0.298 0.157 0.33 1 ? '?'
Y2 'Y' .8f .1 0.359 0.122 0.165 1 ? '?'
O5 'O' .8f .1 0.485 0.102 0.103 1 ? '?'

_sm_atom_site_transformation
;No transformation from published to standardized cell parameters necessary.
Atom coordinates assigned by editor.
;

data_sm_isp_SD1801962-published_cell
#Cell Parameters
_cell_length_a					14.4
_cell_length_b					6.72
_cell_length_c					10.41
_cell_angle_alpha				90
_cell_angle_beta				122.2
_cell_angle_gamma				90
_sm_length_ratio_ab				2.143
_sm_length_ratio_bc				0.646
_sm_length_ratio_ca				0.723
_cell_volume 					852.42
_symmetry_space_group_name_H-M	'C12/c1'
_symmetry_Int_Tables_number		15
_cell_formula_units_Z			8

#Atom Coordinates
loop_
_atom_site_label
_atom_site_type_symbol
_atom_site_Wyckoff_symbol
_sm_site_symmetry
_atom_site_fract_x
_atom_site_fract_y
_atom_site_fract_z
_atom_site_occupancy
_sm_coordination_number
_sm_atomic_environment_type
? ? ? ? ? ? ? ? ? ?

data_sm_isp_SD1801962-niggli_reduced_cell
#Cell Parameters
_cell_length_a					6.72
_cell_length_b					7.9454
_cell_length_c					9.5717
_cell_angle_alpha				72.247
_cell_angle_beta				69.449
_cell_angle_gamma				64.983
_sm_length_ratio_ab				0.846
_sm_length_ratio_bc				0.830
_sm_length_ratio_ca				1.424
_cell_volume 					426.21
_symmetry_space_group_name_H-M	''
_symmetry_Int_Tables_number		?
_cell_formula_units_Z			8

#Atom Coordinates
loop_
_atom_site_label
_atom_site_type_symbol
_atom_site_Wyckoff_symbol
_sm_site_symmetry
_atom_site_fract_x
_atom_site_fract_y
_atom_site_fract_z
_atom_site_occupancy
_sm_coordination_number
_sm_atomic_environment_type
? ? ? ? ? ? ? ? ? ?

